/*--------------------------------*- C++ -*----------------------------------*\
| =========                 |                                                 |
| \\      /  F ield         | OpenFOAM: The Open Source CFD Toolbox           |
|  \\    /   O peration     | Version:  2.3.0                                 |
|   \\  /    A nd           | Web:      www.OpenFOAM.org                      |
|    \\/     M anipulation  |                                                 |
\*---------------------------------------------------------------------------*/
FoamFile
{
    version     2.0;
    format      ascii;
    class       dictionary;
    location    "constant";
    object      fvOptions;
}
// * * * * * * * * * * * * * * * * * * * * * * * * * * * * * * * * * * * * * //

heatSource
{
    type            scalarSemiImplicitSource;
    active          yes;

    scalarSemiImplicitSourceCoeffs
    {
        timeStart       0.2;
        duration        2.0;
		selectionMode   cellZone;
		cellZone        boxSourceZone;

        volumeMode      absolute;
        injectionRateSuSp
        {
            T (0.05 0);
        }
    }
}
/*
heatSource
{
    type scalarSemiImplicitSource;
    active          true;
    selectionMode   cellZone;
    cellZone        boxSourceZone;

    scalarSemiImplicitSourceCoeffs 
    {
        timeStart       0.2;
        duration        2.0;
        
        volumeMode absolute;
        injectionRateSuSp 
        {
            T (0.05 0);
        }
    }
}
*/

// ************************************************************************* //
